*HEADING
Concrete Curing Thermal Stress Analysis

*NODE
1, 1.10, 1.10, 0.00
2, 1.10, 1.20, 0.00
3, 1.10, 1.30, 0.00
4, 1.10, 1.40, 0.00
5, 1.10, 1.50, 0.00
6, 1.10, 1.60, 0.00
7, 1.10, 1.70, 0.00
8, 1.10, 1.80, 0.00
9, 1.10, 1.90, 0.00
10, 1.20, 1.10, 0.00
11, 1.20, 1.20, 0.00
12, 1.20, 1.30, 0.00
13, 1.20, 1.40, 0.00
14, 1.20, 1.50, 0.00
15, 1.20, 1.60, 0.00
16, 1.20, 1.70, 0.00
17, 1.20, 1.80, 0.00
18, 1.20, 1.90, 0.00
19, 1.30, 1.10, 0.00
20, 1.30, 1.20, 0.00
** ... 466 like lines cut
*NSET, NSET=ALLNODES, GENERATE
1, 486, 1
*ELEMENT, TYPE=C3D8, ELSET=SolidSet
*MATERIAL, NAME=Conc
*ELASTIC
30000, 0.2
*DENSITY
2400
*EXPANSION
1.0e-5
*SOLID SECTION, ELSET=SolidSet, MATERIAL=Conc

*INITIAL CONDITIONS, TYPE=TEMPERATURE
ALLNODES, 20.0
*STEP
*STATIC
*BOUNDARY
1, 1, 3, 0.0
2, 1, 3, 0.0
3, 1, 3, 0.0
4, 1, 3, 0.0
5, 1, 3, 0.0
6, 1, 3, 0.0
7, 1, 3, 0.0
8, 1, 3, 0.0
9, 1, 3, 0.0
10, 1, 3, 0.0
11, 1, 3, 0.0
12, 1, 3, 0.0
13, 1, 3, 0.0
14, 1, 3, 0.0
15, 1, 3, 0.0
16, 1, 3, 0.0
17, 1, 3, 0.0
18, 1, 3, 0.0
19, 1, 3, 0.0
20, 1, 3, 0.0
** ... 61 like lines cut
*TEMPERATURE
1, 31.03
2, 31.34
3, 31.66
4, 31.97
5, 32.29
6, 32.62
7, 32.94
8, 33.27
9, 33.59
10, 31.90
11, 32.21
12, 32.52
13, 32.84
14, 33.16
15, 33.48
16, 33.81
17, 34.13
18, 34.46
19, 32.78
20, 33.09
** ... 466 like lines cut
*NODE PRINT, NSET=ALLNODES
U
*EL PRINT, ELSET=SolidSet
S
*NODE FILE, NSET=ALLNODES
U
*EL FILE, ELSET=SolidSet
S
*END STEP
