*HEADING
Concrete Curing Thermal Stress Analysis

*NODE
1, 0.10, 0.10, 0.00
2, 0.10, 0.20, 0.00
3, 0.10, 0.30, 0.00
4, 0.10, 0.40, 0.00
5, 0.10, 0.50, 0.00
6, 0.10, 0.60, 0.00
7, 0.10, 0.70, 0.00
8, 0.10, 0.80, 0.00
9, 0.10, 0.90, 0.00
10, 0.10, 1.00, 0.00
11, 0.10, 1.10, 0.00
12, 0.10, 1.20, 0.00
13, 0.10, 1.30, 0.00
14, 0.10, 1.40, 0.00
15, 0.10, 1.50, 0.00
16, 0.10, 1.60, 0.00
17, 0.10, 1.70, 0.00
18, 0.10, 1.80, 0.00
19, 0.10, 1.90, 0.00
20, 0.20, 0.10, 0.00
** ... 2146 like lines cut
*NSET, NSET=ALLNODES, GENERATE
1, 2166, 1
*ELEMENT, TYPE=C3D8, ELSET=SolidSet
*MATERIAL, NAME=Conc
*ELASTIC
30000, 0.2
*DENSITY
2400
*EXPANSION
1.0e-5
*SOLID SECTION, ELSET=SolidSet, MATERIAL=Conc

*INITIAL CONDITIONS, TYPE=TEMPERATURE
ALLNODES, 20.0
*STEP
*STATIC
*BOUNDARY
1, 1, 3, 0.0
2, 1, 3, 0.0
3, 1, 3, 0.0
4, 1, 3, 0.0
5, 1, 3, 0.0
6, 1, 3, 0.0
7, 1, 3, 0.0
8, 1, 3, 0.0
9, 1, 3, 0.0
10, 1, 3, 0.0
11, 1, 3, 0.0
12, 1, 3, 0.0
13, 1, 3, 0.0
14, 1, 3, 0.0
15, 1, 3, 0.0
16, 1, 3, 0.0
17, 1, 3, 0.0
18, 1, 3, 0.0
19, 1, 3, 0.0
20, 1, 3, 0.0
** ... 341 like lines cut
*TEMPERATURE
1, 19.93
2, 20.20
3, 20.46
4, 20.73
5, 21.00
6, 21.28
7, 21.56
8, 21.84
9, 22.12
10, 22.41
11, 22.71
12, 23.01
13, 23.31
14, 23.61
15, 23.92
16, 24.23
17, 24.55
18, 24.86
19, 25.18
20, 20.75
** ... 2146 like lines cut
*NODE PRINT, NSET=ALLNODES
U
*EL PRINT, ELSET=SolidSet
S
*NODE FILE, NSET=ALLNODES
U
*EL FILE, ELSET=SolidSet
S
*END STEP
