*HEADING
Concrete Curing Thermal Stress Analysis

*NODE
1, 1.00, 1.00, 0.00
2, 1.00, 2.00, 0.00
3, 1.00, 3.00, 0.00
4, 1.00, 4.00, 0.00
5, 2.00, 1.00, 0.00
6, 2.00, 2.00, 0.00
7, 2.00, 3.00, 0.00
8, 2.00, 4.00, 0.00
9, 3.00, 1.00, 0.00
10, 3.00, 2.00, 0.00
11, 3.00, 3.00, 0.00
12, 3.00, 4.00, 0.00
13, 4.00, 1.00, 0.00
14, 4.00, 2.00, 0.00
15, 4.00, 3.00, 0.00
16, 4.00, 4.00, 0.00
17, 5.00, 1.00, 0.00
18, 5.00, 2.00, 0.00
19, 5.00, 3.00, 0.00
20, 5.00, 4.00, 0.00
** ... 204 like lines cut
*NSET, NSET=ALLNODES, GENERATE
1, 224, 1
*ELEMENT, TYPE=C3D8, ELSET=SolidSet
1, 1, 5, 6, 2, 57, 61, 62, 58
2, 57, 61, 62, 58, 113, 117, 118, 114
3, 113, 117, 118, 114, 169, 173, 174, 170
4, 2, 6, 7, 3, 58, 62, 63, 59
5, 58, 62, 63, 59, 114, 118, 119, 115
6, 114, 118, 119, 115, 170, 174, 175, 171
7, 3, 7, 8, 4, 59, 63, 64, 60
8, 59, 63, 64, 60, 115, 119, 120, 116
9, 115, 119, 120, 116, 171, 175, 176, 172
10, 5, 9, 10, 6, 61, 65, 66, 62
11, 61, 65, 66, 62, 117, 121, 122, 118
12, 117, 121, 122, 118, 173, 177, 178, 174
13, 6, 10, 11, 7, 62, 66, 67, 63
14, 62, 66, 67, 63, 118, 122, 123, 119
15, 118, 122, 123, 119, 174, 178, 179, 175
16, 7, 11, 12, 8, 63, 67, 68, 64
17, 63, 67, 68, 64, 119, 123, 124, 120
18, 119, 123, 124, 120, 175, 179, 180, 176
19, 9, 13, 14, 10, 65, 69, 70, 66
20, 65, 69, 70, 66, 121, 125, 126, 122
** ... 97 like lines cut
*MATERIAL, NAME=Conc
*ELASTIC
30000, 0.2
*DENSITY
2400
*EXPANSION
1.0e-5
*SOLID SECTION, ELSET=SolidSet, MATERIAL=Conc

*INITIAL CONDITIONS, TYPE=TEMPERATURE
ALLNODES, 20.0
*STEP
*STATIC
*BOUNDARY
1, 1, 3, 0.0
2, 1, 3, 0.0
3, 1, 3, 0.0
4, 1, 3, 0.0
5, 1, 3, 0.0
6, 1, 3, 0.0
7, 1, 3, 0.0
8, 1, 3, 0.0
9, 1, 3, 0.0
10, 1, 3, 0.0
11, 1, 3, 0.0
12, 1, 3, 0.0
13, 1, 3, 0.0
14, 1, 3, 0.0
15, 1, 3, 0.0
16, 1, 3, 0.0
17, 1, 3, 0.0
18, 1, 3, 0.0
19, 1, 3, 0.0
20, 1, 3, 0.0
** ... 36 like lines cut
*TEMPERATURE
1, 72.23
2, 73.05
3, 73.55
4, 73.85
5, 74.75
6, 75.60
7, 76.03
8, 76.25
9, 76.77
10, 77.62
11, 78.03
12, 78.31
13, 78.30
14, 78.99
15, 79.57
16, 80.16
17, 79.91
18, 80.43
19, 81.24
20, 82.25
** ... 204 like lines cut
*NODE PRINT, NSET=ALLNODES
U
*EL PRINT, ELSET=SolidSet
S
*NODE FILE, NSET=ALLNODES
U
*EL FILE, ELSET=SolidSet
S
*END STEP
